* Germanium.lib
.MODEL 1N60 D RS=50.0559 EG=1.11 XTI=3 VJ=0.8 M=0.1 FC=0.5 BV=40 CJO=1.75p IS=1.37773u N=2 TT=100n 
.model AA112 D is=1.2u n=1.4 rs=80 cjo=1.2p tt=18n eg=0.69 
.MODEL AEG_AA112 D(IS=2.777779u RS=35.67365 BV=20 IBV=0.0022 CJO=1p TT=1p M=0.5 VJ=1 N=2.172326 EG=0.67 FC=0.5)
.MODEL AEG_AA117 D(IS=1.111111E-05 RS=46.02731 BV=115 IBV=0.006 CJO=1p TT=1p ISR=1.581139E-06 M=0.5 VJ=0.5 N=3.542911 IKF=0.03 NR=29.56001 EG=0.67 FC=0.5 XTI=3.012615 NBV=14.78 IBVL=0.00007 NBVL=22.17001 
.model OA90-G D(Is=54.12u N=4.209 Rs=42.72 Ikf=0 Xti=3 Eg=1.11 Cjo=1p M=.3333 Vj=.75 Fc=.5 Isr=13.54E-21 Nr=4.62 Bv=22.5 Ibv=100u Tt=5n)
.model OA90-M D(Is=120.5u N=7.405 Rs=48.89 Ikf=0 Xti=3 Eg=1.11 Cjo=1p M=.3333 Vj=.75 Fc=.5 Isr=10.36E-21 Nr=4.99 Bv=40 Ibv=100u Tt=5n)
.model OA91 D(Is=19.43u N=2.986 Rs=65.98 Ikf=0 Xti=3 Eg=1.11 Cjo=1.326p M=.3333 Vj=.75 Fc=.5 Isr=2.787u Nr=1.954 Bv=100 Ibv=100u Tt=5n)
.model OA95 D is=68.06u N=4.056 Rs=45.41 Ikf=78.67 Xti=3 Cjo=1.326p M=.3333 Vj=.75 Fc=.5 Isr=10.42E-21 Nr=4.612 Bv=100 Ibv=100u Tt=5n 
.MODEL 1N34A D(IS=2.6u RS=6.5 N=1.6 CJO=0.8p EG=0.67 BV=75 IBV=1m Type=GePunctualContact)
.MODEL 1N34A_ D (is=0.2u bv=75 cjo=0.5p eg=0.67 ibv=18m rs=7 n=1.3 vj=0.1 m=0.27 Type=GePunctualContact)

.MODEL AC127 NPN(IS=5u ISC=5u ISE=600n IKF=300m ITF=300m NC=2 NE=2 BF=160 BR=5 RB=100 RC=1.5 vaf=50 var=50 CJC=200p CJE=60p TR=3u TF=600n FC=0.5 eg=0.72 VJC=0.4 VJE=0.4 VTF=4 MJC=0.333 MJE=0.333 XTB=1.5 XTF=6 XTI=3)
.MODEL AC128 PNP(IS=5u ISC=1u ISE=200n IKF=3 ITF=1 NC=2 NE=1.5 BF=90 BR=5 RB=7 RC=0.2 RE=0.1 vaf=40 var=40 CJC=250p CJE=80p TR=5u TF=1u FC=0.5 eg=0.72 VJC=0.4 VJE=0.4 VTF=4 MJC=0.333 MJE=0.333 XTB=1.5 XTF=6 XTI=3)
.MODEL 2N242 PNP (IS=524N NF=1 BF=156 VAF=106 IKF=3 ISE=330N NE=2 BR=4 NR=1 VAR=40 IKR=4.5 RE=.190 RB=.763 RC=76.3M XTB=1.5 CJE=1.07N CJC=315P TF=1.5U TR=3u)
.MODEL 2Nxxxx PNP (IS=1.25N NF=1 BF=78 VAF=90 IKF=60M ISE=4.57N NE=2 BR=4 NR=1 VAR=14 IKR=90M RE=2.63 RB=10.5 RC=1.05 XTB=1.5 CJE=27.9P CJC=8.22P TF=437P TR=17N)
.model 2N344 PNP(Is=100p bf=22 Vaf=15 Cje=5p Cjc=2.5p Tf=3n Eg=.67 Rb=100 Re=10)
.MODEL ECG101 NPN (IS=1.51N NF=1 BF=52 VAF=80.5 IKF=0.18 ISE=16.8N NE=2 BR=4 NR=1 VAR=80 IKR=0.27 RE=0.172 RB=0.687 RC=68.7M XTB=1.5 CJE=38.2P VJE=1.1 MJE=0.5 CJC=12.3P VJC=0.3 MJC=0.3 TF=31.8N TR=22.1U)
.MODEL ECG103 NPN (IS=1.25N NF=1 BF=117 VAF=72 IKF=0.15 ISE=6.22N NE=2 BR=4 NR=1 VAR=80 IKR=0.225 RE=0.206 RB=0.824 RC=82.4M XTB=1.5 CJE=33P VJE=1.1 MJE=0.5 CJC=10.7P VJC=0.3 MJC=0.3 TF=79.5N TR=55.2U)
.MODEL ECG103A NPN (IS=2.51N NF=1 BF=136 VAF=102 IKF=0.3 ISE=10.7N NE=2 BR=4 NR=1 VAR=40 IKR=0.45 RE=0.103 RB=0.412 RC=41.2M XTB=1.5 CJE=58.7P VJE=1.1 MJE=0.5 CJC=18.9P VJC=0.3 MJC=0.3 TF=63.6N TR=44.2U)
.MODEL AC151 pnp(IS=10u ISC=5u ISE=1u IKF=400m ITF=200m NC=2 NE=2 BF=110 BR=5 RB=75 rbm=5 irb=0.25m RC=0.5 RE=0.5 vaf=20 var=20 CJC=75p CJE=30p TR=3u TF=100n FC=0.5 eg=0.72 VJC=0.4 VJE=0.4 VTF=4 MJC=0.4 MJE=0.4 XTB=1.5 XTF=6 XTI=3)
.MODEL AG128 PNP (AF=1 BF=85 BR=20 CJC=3.75P CJE=6P EG=0.67 FC=0.75 IKF=9.981M IKR=1.248M IRB=5U IS=120.8N ISC=120.8N ISE=0.435N ITF=9.983M KF=5F MJC=0.33 MJE=0.4 NC=1.2 NE=1.2 NF=1 NR=1 PTF=1 RB=173.312 RBM=43.328 RC=60 RE=20 TF=0.15U TR=2.865U VAF=102.207 VAR=20 VJC=0.6 VJE=0.4 VJS=0.7 VTF=2 XCJC=0.65 XTB=1 XTF=9.996 XTI=4)

.model D310 d(IS=2.5u N=1.437 RS=0.07 m=0.314 Vj=1.65 Cjo=14pF IBV=5u BV=20 TT=130n EG=0.67 XTI=3)
.model D311A d(IS=8u N=1.483 RS=1.85 m=0.22 Vj=0.1 Cjo=3.5pF IBV=1.00E-04 BV=30 TT=20n EG=0.67 XTI=3)
.model D18 d(IS=4u N=2.15 RS=17 m=0.124 Vj=0.1 Cjo=0.67pF IBV=2u BV=20 TT=5n EG=0.67 XTI=3 Iave=16m Vpk=20)
.model mp25a pnp bf=140 br=3 eg=0.72 cje=30p cjc=90p tf=0.4u tr=4u is=3u ikf=40m vaf=30 mje=0.5 mjc=0.5 rb=120 rbm=40 irb=0.1m ise=.3u ne=1.28 isc=.6u nc=1.28
.model mp26a ako: mp25a pnp
.model mp35 npn bf=140 br=4 eg=0.72 cje=50p cjc=90p tf=0.2u tr=2.u is=3u ikf=50m vaf=15 mje=0.5 mjc=0.5 rb=150 rbm=50 irb=0.1m ise=0.3u ne=1.28 isc=0.6u nc=1.28
.model mp37 npn bf=140 br=4 eg=0.72 cje=30p cjc=90p tf=0.1u tr=1.u is=3u ikf=50m vaf=15 mje=0.5 mjc=0.5 rb=150 rbm=50 irb=0.1m ise=.3u ne=1.28 isc=.6u nc=1.28
.model mp39B pnp bf=140 br=3 eg=0.72 cje=30p cjc=90p tf=0.2u tr=1.u is=3u ikf=50m vaf=15 mje=0.5 mjc=0.5 rb=150 rbm=50 irb=0.1m ise=.3u ne=1.28 isc=0.6u nc=1.28
.model mp41 pnp bf=140 br=4 eg=0.72 cje=30p cjc=90p tf=0.1u tr=1.u is=3u ikf=50m vaf=15 mje=0.5 mjc=0.5 rb=150 rbm=50 irb=0.1m ise=.3u ne=1.28 isc=0.6u nc=1.28
.model GT308B pnp bf=800 br=.3 eg=0.72 cje=20p cjc=15p tf=1n tr=.4u xcjc=0.4 is=100n ikf=45m vaf=30 mje=0.5 mjc=0.5 rc=20 rb=80 rbm=10 irb=1m ise=25n ne=1.5 isc=.7u nc=1.4 
.model GT311A NPN(IS=14e-12 TF=10.7n TR=0 Cje=10p Cjc=7.5p VJC=0.6 BF=71.4 BR=1.3 RB=100) 
.model GT322A pnp bf=100 br=.3 eg=0.72 cje=10p cjc=4p tf=1n tr=.4u xcjc=0.3 is=50n ikf=20m vaf=30 mje=0.5 mjc=0.5 rc=10 rb=40 ise=10n ne=1.5 isc=.5u nc=1.4 
.MODEL GT402G PNP BF=200 BR=9.5 CJC=580p CJE=400p EG=0.67 IKF=3.5 IKR=500m IS=4.9u ISC=300n ISE=180n ITF=40.9u MJC=3.9 MJE=5.7 NE=1.9 NF=1.1 RC=200m RE=400m TF=75.56n TR=96.58n VAF=18.3 VJC=850m VJE=850m VTF=10 XTF=1.79
.MODEL GT404G NPN BF=160 BR=9.4 CJC=2.86n CJE=2.08n EG=0.67 IKF=2.5 IKR=200m IS=28u ISC=800n ISE=1.55u ITF=11.194m MJC=3.5 MJE=4.05 NE=2 NF=1.09 RB=5 RC=100m RE=440m TF=113n TR=448.17n VAF=35 VTF=10 XTF=500m
.model P416B pnp bf=800 br=.3 eg=0.72 cje=20p cjc=15p tf=1n tr=.4u xcjc=0.5 is=100n ikf=45m vaf=30 mje=0.5 mjc=0.5 rc=20 rb=80 rbm=10 irb=1m ise=25n ne=1.5 isc=.7u nc=1.4

*** PNP 15A 100V
.MODEL GT806B PNP (BF=50 BR=1.000000004658m
+ CJC=370.122683039208p CJE=562.77720137022p FC=500.000001073757m
+ IKF=716.919946780524m IKR=10.000001364568m IS=10.256643913003f
+ ISC=98.557590750318p ISE=.000000144458f ITF=63.387718169127f
+ MJC=383.692916282016m MJE=483.990197021103m NC=2.000000003374
+ NE=650.541221795828m NF=853.951123357701m RC=42.059429791057m
+ RE=92.22764856181m TF=20.342135167303n TR=999.999996592669m VAF=100
+ VJC=700.000000047339m VJE=750.097338903212m VTF=10.012794593207
+ XTF=522.521126058016m)

